   12

  N    27.62240784    29.28637623    29.24298106
  C    28.49168583    30.03760626    30.00980992
  N    29.85221496    29.84850399    29.88763308
  C    30.38752406    28.80890360    29.06320165
  C    29.42480997    28.08430776    28.29375541
  C    28.12555505    28.31919155    28.36667185
  O    27.95339012    30.94694587    30.89285550
  O    31.63442927    28.69138587    28.93870818
  H    29.74923104    27.32059879    27.61566599
  H    27.57191902    27.63683068    27.75387270
  H    26.64740549    29.38549295    29.36078217
  H    30.42760179    30.43471636    30.48432072
   12

  N    27.62588860    29.29200942    29.24524348
  C    28.49996333    30.04026744    30.01464627
  N    29.84369207    29.84622727    29.89481087
  C    30.38907152    28.80940338    29.05678918
  C    29.42038326    28.07793552    28.29709831
  C    28.12073676    28.31865259    28.36395847
  O    27.95920483    30.94009972    31.15199124
  O    31.63629183    28.69285760    28.93781940
  H    29.71244322    27.32205388    27.59260946
  H    27.56086420    27.68072223    27.77110210
  H    26.66229338    29.40522821    29.38509176
  H    30.40230822    30.45299736    30.50261790
   12

  N    27.63076058    29.29734955    29.24737522
  C    28.50484140    30.04762542    30.02518402
  N    29.83471612    29.84331802    29.90171406
  C    30.39461109    28.81139664    29.05091698
  C    29.41654561    28.07089759    28.29986429
  C    28.11620187    28.31930802    28.36275031
  O    27.96725271    30.92935767    31.40627938
  O    31.63551432    28.69445019    28.93729482
  H    29.68146664    27.32470977    27.57208881
  H    27.52983855    27.72238834    27.78293539
  H    26.67051541    29.42832761    29.41232811
  H    30.37381739    30.46170987    30.51226278
   12

  N    27.63755865    29.30342093    29.25019689
  C    28.50807327    30.05568170    30.03823419
  N    29.82446590    29.84013077    29.90830067
  C    30.40383297    28.81454822    29.04547539
  C    29.41291767    28.06327341    28.30196175
  C    28.11253905    28.32140875    28.36328329
  O    27.97633098    30.91686151    31.65764960
  O    31.63221608    28.69622904    28.93711521
  H    29.65782683    27.32868493    27.55495553
  H    27.47610360    27.75606645    27.78441942
  H    26.67276292    29.45366215    29.44154369
  H    30.34414599    30.46110655    30.51472357
   12

  N    27.64576043    29.31064558    29.25409305
  C    28.50984023    30.06316475    30.05302878
  N    29.81313699    29.83674156    29.91449822
  C    30.41577610    28.81868565    29.04042195
  C    29.40945972    28.05517411    28.30334765
  C    28.10936727    28.32489925    28.36545389
  O    27.98618686    30.90312577    31.90633682
  O    31.62678374    28.69821651    28.93725363
  H    29.64258936    27.33367124    27.54164621
  H    27.40547263    27.78418986    27.77823113
  H    26.67426809    29.47821411    29.47019998
  H    30.31789287    30.45316979    30.51318374
   12

  N    27.65479877    29.31917258    29.25932221
  C    28.51001422    30.06963934    30.06898642
  N    29.80109422    29.83287286    29.92003634
  C    30.42922392    28.82370363    29.03581170
  C    29.40625767    28.04672687    28.30398862
  C    28.10560525    28.32934677    28.36874922
  O    27.99661136    30.88850650    32.15270996
  O    31.61979375    28.70040870    28.93766934
  H    29.63636992    27.33898343    27.53205452
  H    27.33060161    27.81322206    27.77182403
  H    26.68100605    29.49900587    29.49494167
  H    30.30065323    30.44136964    30.51137876
